<configuration>
    <input>
        <net-file value="drivingadvanced.net.xml"/>
        <route-files value="drivingadvanced.rou.xml"/>
        <gui-settings-file value="drivingadvanced.settings.xml"/>
    </input>
    <time>
        <begin value="0"/>
        <end value="10000"/>
    </time>
</configuration>